Version 4
SHEET 1 2408 1200
WIRE -944 -400 -1024 -400
WIRE -832 -400 -880 -400
WIRE -688 -400 -752 -400
WIRE -592 -400 -688 -400
WIRE -528 -400 -592 -400
WIRE -416 -400 -464 -400
WIRE -272 -400 -336 -400
WIRE -688 -336 -688 -400
WIRE -592 -336 -592 -400
WIRE -688 -240 -688 -272
WIRE -640 -240 -688 -240
WIRE -592 -240 -592 -256
WIRE -592 -240 -640 -240
WIRE -640 -224 -640 -240
WIRE 288 -160 144 -160
WIRE 512 -160 368 -160
WIRE -1456 -96 -1536 -96
WIRE -1264 -96 -1376 -96
WIRE -1104 -96 -1184 -96
WIRE 1136 0 944 0
WIRE 1328 0 1200 0
WIRE -288 32 -384 32
WIRE -176 32 -208 32
WIRE 16 32 -176 32
WIRE 144 32 144 -160
WIRE 208 32 144 32
WIRE 512 32 512 -160
WIRE 512 32 464 32
WIRE -176 80 -176 32
WIRE 16 96 16 32
WIRE 208 96 16 96
WIRE 512 96 464 96
WIRE 1184 144 1184 96
WIRE 208 160 16 160
WIRE 832 160 464 160
WIRE 944 160 944 0
WIRE 944 160 912 160
WIRE 976 160 944 160
WIRE 1088 160 1056 160
WIRE 1152 160 1088 160
WIRE -176 176 -176 144
WIRE 1088 176 1088 160
WIRE 1312 176 1216 176
WIRE 1328 176 1328 0
WIRE 1328 176 1312 176
WIRE 1376 176 1328 176
WIRE 1520 176 1440 176
WIRE 1696 176 1600 176
WIRE 1744 176 1696 176
WIRE 1152 192 1120 192
WIRE 208 224 128 224
WIRE 512 224 464 224
WIRE 1120 240 1120 192
WIRE 1312 240 1312 176
WIRE 1312 240 1120 240
WIRE 1696 240 1696 176
WIRE 128 256 128 224
WIRE -880 272 -976 272
WIRE -720 272 -800 272
WIRE -288 272 -384 272
WIRE -176 272 -208 272
WIRE 16 272 16 160
WIRE 16 272 -176 272
WIRE 1088 272 1088 240
WIRE 1184 272 1184 208
WIRE 1216 272 1184 272
WIRE 1312 272 1280 272
WIRE 1184 288 1184 272
WIRE -176 320 -176 272
WIRE 1696 368 1696 320
WIRE -176 416 -176 384
WIRE -1472 432 -1568 432
WIRE -1280 432 -1392 432
WIRE -1120 432 -1200 432
WIRE 288 512 160 512
WIRE 496 512 368 512
WIRE 1088 624 896 624
WIRE 1280 624 1152 624
WIRE -288 656 -336 656
WIRE -176 656 -208 656
WIRE 16 656 -176 656
WIRE 160 656 160 512
WIRE 208 656 160 656
WIRE 496 656 496 512
WIRE 496 656 464 656
WIRE -720 688 -720 624
WIRE -176 688 -176 656
WIRE 16 720 16 656
WIRE 208 720 16 720
WIRE 528 720 464 720
WIRE -1264 736 -1264 656
WIRE 1136 768 1136 720
WIRE -176 784 -176 752
WIRE 208 784 16 784
WIRE 784 784 464 784
WIRE 896 784 896 624
WIRE 896 784 864 784
WIRE 928 784 896 784
WIRE 1040 784 1008 784
WIRE 1104 784 1040 784
WIRE 1040 800 1040 784
WIRE 1264 800 1168 800
WIRE 1280 800 1280 624
WIRE 1280 800 1264 800
WIRE 1328 800 1280 800
WIRE 1472 800 1392 800
WIRE 1648 800 1552 800
WIRE 1696 800 1648 800
WIRE -720 816 -720 768
WIRE -720 816 -784 816
WIRE -624 816 -720 816
WIRE -496 816 -560 816
WIRE 1104 816 1072 816
WIRE -1264 848 -1264 816
WIRE -1264 848 -1392 848
WIRE 208 848 144 848
WIRE 528 848 464 848
WIRE -720 864 -720 816
WIRE -496 864 -496 816
WIRE 1072 864 1072 816
WIRE 1264 864 1264 800
WIRE 1264 864 1072 864
WIRE 1648 864 1648 800
WIRE -1392 880 -1392 848
WIRE -1264 880 -1264 848
WIRE 144 880 144 848
WIRE -288 896 -336 896
WIRE -176 896 -208 896
WIRE 16 896 16 784
WIRE 16 896 -176 896
WIRE 1040 896 1040 864
WIRE 1136 896 1136 832
WIRE 1168 896 1136 896
WIRE 1264 896 1232 896
WIRE 1136 912 1136 896
WIRE -176 944 -176 896
WIRE -720 976 -720 944
WIRE 1648 992 1648 944
WIRE -1264 1040 -1264 960
WIRE -176 1040 -176 1008
FLAG -1536 -96 0
FLAG -1568 432 0
FLAG -1392 880 0
FLAG -496 864 0
FLAG -976 272 0
FLAG 144 880 0
FLAG 128 256 0
FLAG -640 -224 0
FLAG -720 976 0
FLAG -176 176 0
FLAG -176 416 0
FLAG -176 784 0
FLAG -176 1040 0
FLAG -1264 656 5V
FLAG -720 624 5V
FLAG 512 96 5V
FLAG 528 720 5V
FLAG -1264 1040 -5V
FLAG -1104 -96 V_messy
FLAG -1024 -400 V_messy
FLAG -1120 432 V_ideal
FLAG -720 272 V_unfiltered
FLAG -784 816 AGND
FLAG 512 224 AGND
FLAG 528 848 AGND
FLAG 1696 368 0
FLAG -272 -400 V_filtered
FLAG -384 32 V_unfiltered
FLAG -384 272 V_unfiltered
FLAG -336 656 01
FLAG -336 896 10
FLAG 1744 176 I_output
FLAG 1088 272 0
FLAG 1184 96 0
FLAG 1184 288 5V
FLAG 1312 272 0
FLAG 1648 992 0
FLAG 1696 800 Q_output
FLAG 1040 896 0
FLAG 1136 720 0
FLAG 1136 912 5V
FLAG 1264 896 0
SYMBOL Opamps\\LT1167 336 128 R0
SYMATTR InstName U1
SYMBOL Opamps\\LT1167 336 752 R0
SYMATTR InstName U2
SYMBOL voltage -1360 -96 R90
WINDOW 0 -32 56 VBottom 2
WINDOW 3 32 56 VTop 2
WINDOW 123 0 0 Left 0
WINDOW 39 0 0 Left 0
SYMATTR InstName V1
SYMATTR Value SINE(0 5u 10meg)
SYMBOL voltage -1376 432 R90
WINDOW 0 -32 56 VBottom 2
WINDOW 3 32 56 VTop 2
WINDOW 123 0 0 Left 0
WINDOW 39 0 0 Left 0
SYMATTR InstName V2
SYMATTR Value SINE(0 5u 10meg)
SYMBOL res -1168 -112 R90
WINDOW 0 0 56 VBottom 2
WINDOW 3 32 56 VTop 2
SYMATTR InstName R1
SYMATTR Value 50
SYMBOL res -1184 416 R90
WINDOW 0 0 56 VBottom 2
WINDOW 3 32 56 VTop 2
SYMATTR InstName R2
SYMATTR Value 50
SYMBOL voltage -1264 720 R0
WINDOW 123 0 0 Left 0
WINDOW 39 0 0 Left 0
SYMATTR InstName V3
SYMATTR Value 5V
SYMBOL voltage -1264 864 R0
WINDOW 123 0 0 Left 0
WINDOW 39 0 0 Left 0
SYMATTR InstName V4
SYMATTR Value 5V
SYMBOL res -736 672 R0
SYMATTR InstName R3
SYMATTR Value 10k
SYMBOL res -736 848 R0
SYMATTR InstName R4
SYMATTR Value 10k
SYMBOL cap -560 800 R90
WINDOW 0 0 32 VBottom 2
WINDOW 3 32 32 VTop 2
SYMATTR InstName C1
SYMATTR Value 10µ
SYMBOL voltage -784 272 R90
WINDOW 0 -32 56 VBottom 2
WINDOW 3 32 56 VTop 2
WINDOW 123 0 0 Left 0
WINDOW 39 60 56 VTop 2
SYMATTR InstName V5
SYMATTR Value SINE(0 5m 10meg)
SYMATTR SpiceLine Rser=50
SYMBOL res 384 -176 R90
WINDOW 0 0 56 VBottom 2
WINDOW 3 32 56 VTop 2
SYMATTR InstName R5
SYMATTR Value 50
SYMBOL res 384 496 R90
WINDOW 0 0 56 VBottom 2
WINDOW 3 32 56 VTop 2
SYMATTR InstName R6
SYMATTR Value 50
SYMBOL cap -880 -416 R90
WINDOW 0 0 32 VBottom 2
WINDOW 3 32 32 VTop 2
SYMATTR InstName C2
SYMATTR Value 354p
SYMBOL cap -672 -272 R180
WINDOW 0 24 56 Left 2
WINDOW 3 24 8 Left 2
SYMATTR InstName C3
SYMATTR Value 515p
SYMBOL cap -528 -384 R270
WINDOW 0 32 32 VTop 2
WINDOW 3 0 32 VBottom 2
SYMATTR InstName C4
SYMATTR Value 54.2p
SYMBOL ind -736 -416 R90
WINDOW 0 5 56 VBottom 2
WINDOW 3 32 56 VTop 2
SYMATTR InstName L1
SYMATTR Value 448n
SYMBOL ind -576 -240 R180
WINDOW 0 36 80 Left 2
WINDOW 3 36 40 Left 2
SYMATTR InstName L2
SYMATTR Value 308n
SYMBOL ind -320 -416 R90
WINDOW 0 5 56 VBottom 2
WINDOW 3 32 56 VTop 2
SYMATTR InstName L3
SYMATTR Value 2.92µ
SYMBOL res -192 16 R90
WINDOW 0 0 56 VBottom 2
WINDOW 3 32 56 VTop 2
SYMATTR InstName R7
SYMATTR Value 50
SYMBOL res -192 640 R90
WINDOW 0 0 56 VBottom 2
WINDOW 3 32 56 VTop 2
SYMATTR InstName R8
SYMATTR Value 50
SYMBOL cap -192 80 R0
SYMATTR InstName C5
SYMATTR Value 100p
SYMBOL cap -192 688 R0
SYMATTR InstName C6
SYMATTR Value 100p
SYMBOL res -192 256 R90
WINDOW 0 0 56 VBottom 2
WINDOW 3 32 56 VTop 2
SYMATTR InstName R9
SYMATTR Value 50
SYMBOL res -192 880 R90
WINDOW 0 0 56 VBottom 2
WINDOW 3 32 56 VTop 2
SYMATTR InstName R10
SYMATTR Value 50
SYMBOL cap -192 320 R0
SYMATTR InstName C7
SYMATTR Value 100p
SYMBOL cap -192 944 R0
SYMATTR InstName C8
SYMATTR Value 100p
SYMBOL res 928 144 R90
WINDOW 0 0 56 VBottom 2
WINDOW 3 32 56 VTop 2
SYMATTR InstName R11
SYMATTR Value 16k
SYMBOL res 1712 336 R180
WINDOW 0 36 76 Left 2
WINDOW 3 36 40 Left 2
SYMATTR InstName R13
SYMATTR Value 55k
SYMBOL res 1072 144 R90
WINDOW 0 -21 55 VBottom 2
WINDOW 3 32 56 VTop 2
SYMATTR InstName R15
SYMATTR Value 16k
SYMBOL cap 1072 176 R0
SYMATTR InstName C11
SYMATTR Value 100p
SYMBOL cap 1200 -16 R90
WINDOW 0 0 32 VBottom 2
WINDOW 3 32 32 VTop 2
SYMATTR InstName C12
SYMATTR Value 100p
SYMBOL cap 1440 160 R90
WINDOW 0 0 32 VBottom 2
WINDOW 3 32 32 VTop 2
SYMATTR InstName C9
SYMATTR Value 10µF
SYMBOL res 1616 160 R90
WINDOW 0 0 56 VBottom 2
WINDOW 3 32 56 VTop 2
SYMATTR InstName R16
SYMATTR Value 100
SYMBOL cap 1216 288 R270
WINDOW 0 32 32 VTop 2
WINDOW 3 0 32 VBottom 2
SYMATTR InstName C13
SYMATTR Value .1µ
SYMBOL res 880 768 R90
WINDOW 0 0 56 VBottom 2
WINDOW 3 32 56 VTop 2
SYMATTR InstName R12
SYMATTR Value 16k
SYMBOL res 1664 960 R180
WINDOW 0 36 76 Left 2
WINDOW 3 36 40 Left 2
SYMATTR InstName R14
SYMATTR Value 55k
SYMBOL res 1024 768 R90
WINDOW 0 -21 55 VBottom 2
WINDOW 3 32 56 VTop 2
SYMATTR InstName R17
SYMATTR Value 16k
SYMBOL cap 1024 800 R0
SYMATTR InstName C10
SYMATTR Value 100p
SYMBOL cap 1152 608 R90
WINDOW 0 0 32 VBottom 2
WINDOW 3 32 32 VTop 2
SYMATTR InstName C14
SYMATTR Value 100p
SYMBOL cap 1392 784 R90
WINDOW 0 0 32 VBottom 2
WINDOW 3 32 32 VTop 2
SYMATTR InstName C15
SYMATTR Value 10µ
SYMBOL res 1568 784 R90
WINDOW 0 0 56 VBottom 2
WINDOW 3 32 56 VTop 2
SYMATTR InstName R18
SYMATTR Value 100
SYMBOL cap 1168 912 R270
WINDOW 0 32 32 VTop 2
WINDOW 3 0 32 VBottom 2
SYMATTR InstName C16
SYMATTR Value .1µ
SYMBOL OpAmps\\OP213 1184 240 M180
SYMATTR InstName U3
SYMBOL OpAmps\\OP213 1136 864 M180
SYMATTR InstName U4
TEXT -1096 1184 Left 2 !.noise V(I_output) V5 dec 100 10 100meg
TEXT 1032 -96 Left 2 ;Added Lowpass filter
